*HEADING
CANTILEVER BEAM
*NODE, NSET=ENDS
1, 0.
6, 100.
*NGEN
1, 6
*ELEMENT, TYPE=B21
1, 1, 2
*ELGEN, ELSET=BEAM
1, 5
*BEAM SECTION, SECTION=RECT, ELSET=BEAM, MATERIAL=STEEL
1., 2.
*MATERIAL, NAME=STEEL
*ELASTIC
30.E6
*BOUNDARY
6, ENCASTRE
*STEP, PERTURBATION
*STATIC
*CLOAD
1, 2, -20000.
*EL PRINT, POSITION=AVERAGED AT NODES, SUMMARY=YES
S11, E11
SF
*OUTPUT, FIELD, VARIABLE=PRESELECT
*ELEMENT OUTPUT
SF
*OUTPUT, HISTORY
*NODE OUTPUT, NSET=ENDS
U, CF, RF
*END STEP
