100x-jbi
3d-adh
abaqus
abaqus-explicit
abaqus-std
abinit
acad
acaps
accelrys
aces
aces-ii
aces-iii
acfd
acnfs
acvsim
ada
adcirc
adf
adh
adina
ae-developed-fazimflal-fluorescence-code
aero-f
aero-f-dyna
aero-s
aero-suite-of-codes
ages
airebomd
alas
ale3d
alef
alegra
alemc
algorithm-development
alla
alsins
amber
amroc
ansa
ansys
ansys-aqwa-suite
ansys-cfx
ansys-design-modeler
ansys-meshing-platform
apeg
arads
arl-nsrg3
arms
athena-rdx
atk
atmosphere-ocean-wave-coupled-system
autocad
autodyn
autometrics
auto-parallel
avs-express
avus
beggar-usm3d
bhsai-pop
bns
boost
brl-cad
btec-thermal
cadcam
cadence
capri
carlos
cart3d
cartablanca
cartflow3d
case-vision
castep
cdp
cequalw2
cerius2
cfd++
cfd-geom
cfdship-iowa
cfdshipm
cfdtd
cfd-view
cfitsio
charmm
chemkin
chimera
chopa
christine
chrome
cice
cicero
cmdft
cmol-transport-simulator
coamps
coamps-custom
cobalt
cobalt-overset
cohint
coliseum
columbus
compoex
comsol
cp2k
cpmd
craft
crale
crayview
crunch
crystal
csa
cth
cubit
dads
dart
decapo
device
dg++
dg-on-nvidia-fermi-gpus
discover
discovery-studio-life-sciences
dl-poly
dmol
dns3d
dovis
dpebsim
dplr
draw-dso
dvsi
dyna2d
dyna3d
dysmas
dysmas-gemini
dysmas-paradyn
dysmas-coupled
eadsim
earth-system-modeling-framework-esmf
echo
ed-dmrg
efitpipe
efitseafloor
elam
emane
emap3d
emcube
ensemble-post-processor
ensight
entrain
eosfel
epic
episim
epsim
esmf
espresso
excalibur
explorer
ez4d
ezvis
fasip
fast3d-ct
fbm2
fbm3
fd-cadre
fdl3dae
fdl3di
fdtd
feflo
feko
fem
fem-dd
femlab
fft3d
fhimd
fieldview
firebolt
fisc
flapw
flex
flexlint
flow3d
flowsimulator
fluent
fluer
flux-tensor
fun3d
fun3d-overflow
fvnsc
ga-dyna
gamess
gamess-neo
gamess-xchf
gasp
gator-gcmom
gaussian
gemacs
gnome
gnu-plot
google-earth-fusion-server
gotcha
grads
gridgen
gridpro
gromacs
gsat
gsgo
gssha
hanrahan
hasp
heff-codes
helios
hifi
home-grown
homps
hp-fem
hycom
hypermesh
hyperworks
hytide
iamps
ic-design-tools
ice
icem
icem-cfd
icepic
icm
icons
icons3dd
ideas
idl
im
impress
imsl
inhomogeneous-dmft
inspire
ir3d-ir2d
irix-runtime
isa-simulator
isl-radar-sim
ism
its
jaguar
jannaf-plume-codes
jas
jbi
jenre
jetcode
jsaf
kc-femre
kestrel
kona
lammps
lapi
larexd
lbmpi
les3d
les-dns
leslie3d
leslie3d-amr
leslie3d-meshfree
leslie3d-tls
lfm-magnetospheric-code
linda
lis
loci-chem
ls-dyna
ls-dyna3d
ls-les
ls-prepost
luau
lucretius-md-code
mach2+ddtcre
mach3
mars
mathematica
mathmatik
matlab
maxtda
maze
mbflo
mcnp
megs
metis
mgia
microsnow
mit-coupled-blast-and-ballistic-simulations-code
mitgcm
mleam
mm5
model-reduction
modsaf
modtran
moes
molcas
moldy
moleplot
molpro
mom
monaco
monocode
monocode-aim
monopole-aim
motif
mpcugles
mrmd
msic-heater
msic-tiger
mud
muses
muves
nag
namd
nasa
nastran
navdas
navdas-ar
navgem
navyfoam
ncar-graphics
ncom
ncom-pim
nec
nektar
nektar-g2
nektar-spm
nfa
nfc
nhboltz
nhmast
nmco-pim
nogaps
nogaps-custom
nrl-mds-material-design-suite
nrlmol
nrl-tight-binding-molecular-dynamics
nseam
nss
nsu3d
nwchem
nxair
octave
olem
omega
onesaf
openfoam
open-gl
orbix
orca
other
overflow
overgrid
over-rel
overset
papanicolaou
paraable
paradis
paraview
parmetis
parts
patran
pcid
pcui
pdac
pegasus
perform-3d
phoenix
picglow
pipa
pir3d
plot3d
pop
ppd
pro-engineer
profess
project-c
pronto
proteus
pse-chem-stable
psm
pspp
pstop3d
pwscf
qbox
qcdft
qualnet
quantum-espresso
quickeyes
quip
quantum-lattice-algorithm
r
radcad
rage
rapidmd
ray-caster
ray-caster-qc
rcas-dymore
reactmb
react-mb
reaxff
recurdyn
regional-arctic-system-model
rf-scene
ricebdg
rjet
rma
rna
rocflocm
rocstar
roctherm
roque-wave
rosetta
rsmt
rsmt
r-stream
rsync
s3d
sad-sid
saf
saicsd
sami3
sami3-ionosphere-spread-f-code
sap-2000
sapt
sara3d
scipuff
scons
sedmix3d
sf2s
shamrc
sharc
shgdft
sierra
siesta
simdemics
simfrastructure
simucad
simula-isight
sinda
smile
smoke
snow
soilperm
solidmesh
sonia
spasm
special-k
sphinxtrain
spice
stanford-les-code
star-ccm+
starcd
stars3d
storm
stratflow
stream
stripe
stwave
suggar++
summit
suntans
swan
switch
sword
tb-lmto-rec
tbmd
tcg-msg
teacc
tecplot
tempus
thermaldesktop
thermoreg
thunder
timecop
tofi
topsi
tornado
tradewinds
transfer
transims
triple
truegrid
turbo
turbowave
ufdns
ufs
uncle-m
uns3d
us3d
usm3d
uwlfoam
vasp
velazquez
videosar
virtual_apps
visit
vl.motion
vmax
vsipl
vsipl++
vulcan
wam
warp-3d
warp-iv-m-s-kernel
warpx
wash123
wave-3d
wavewatch-iii
wind
wind-us
wings
wiswave
wrf
wrf-custom
xfdtd
xpatch
xyce
zapotec
